/*--------------------------------*- C++ -*----------------------------------*\
| =========                 |                                                 |
| \\      /  F ield         | OpenFOAM: The Open Source CFD Toolbox           |
|  \\    /   O peration     | Version:  2.3.x                                 |
|   \\  /    A nd           | Web:      www.OpenFOAM.org                      |
|    \\/     M anipulation  |                                                 |
\*---------------------------------------------------------------------------*/
FoamFile
{
    version     2.0;
    format      ascii;
    class       polyBoundaryMesh;
    location    "constant/polyMesh";
    object      boundary;
}
// * * * * * * * * * * * * * * * * * * * * * * * * * * * * * * * * * * * * * //

3
(
    frontAndBack
    {
        type            empty;
        physicalType    empty;
        nFaces          31124;
        startFace       22839;
    }
    Outlet
    {
        type            patch;
        physicalType    patch;
        nFaces          847;
        startFace       53963;
    }
    inlet
    {
        type            patch;
        physicalType    patch;
        nFaces          161;
        startFace       54810;
    }
)

// ************************************************************************* //
